/*--------------------------------*- C++ -*----------------------------------*\
| =========                 |                                                 |
| \\      /  F ield         | OpenFOAM: The Open Source CFD Toolbox           |
|  \\    /   O peration     | Version:  4.0                                   |
|   \\  /    A nd           | Web:      www.OpenFOAM.org                      |
|    \\/     M anipulation  |                                                 |
\*---------------------------------------------------------------------------*/
FoamFile
{
    version     2.0;
    format      ascii;
    class       dictionary;
    location    "system";
    object      fvSolution;
}
// * * * * * * * * * * * * * * * * * * * * * * * * * * * * * * * * * * * * * //

solvers
{
    "alpha.*"
    {
        nAlphaSubCycles 2;
        nAlphaCorr      1;
        cAlpha          1.5;

        MULESCorr       yes;
        //nLimiterIter    8;
        nLimiterIter    8;

        solver          smoothSolver;
        smoother        symGaussSeidel;
        tolerance       1e-8;
        relTol          0;
        maxIter         20;
    }

    ".*(pcorr|p_rgh|p_rghFinal)"
    {
        solver          PCG; 
        preconditioner  DIC;
        tolerance       1e-12;
        relTol          0.0;
        maxIter         1000;
    }

    ".*(rho|rhoFinal)"
    {
        solver          diagonal;
    }

    "(U|T|k|B|nuTilda|espilon|omega)"
    {
        solver          smoothSolver;
        smoother        DILU;
        tolerance       1e-7;
        relTol          0;
        nSweeps         1;
        maxIter         200;
    }

    "(U|T|k|B|nuTilda|espilon|omega)Final"
    {
        $U;
        relTol          0;
    }

    Phi
    {
        $p_rgh;
        relTol          0;
    }
}

potentialFlow
{
    nNonOrthogonalCorrectors   8;
}

PIMPLE
{
    momentumPredictor           no;
    // Outer Loops ( Pressure - Momentum Correction )
    nOuterCorrectors            1;
    // Inner Loops ( Pressure Correction )
    nCorrectors                 2;
    nNonOrthogonalCorrectors    3;
    consistent      yes;
    turbOnFinalIterOnly true;

residualControl
{
        "alpha.*"
        {
        //relTol 1e-1;
        relTol 0;
        tolerance 1e-8;
        //tolerance 1e-4;
        }
        "p.*"
        {
        //relTol 0;
        relTol 0.0;
        //tolerance 5e-5;
        tolerance 1e-8;
        }
        "U.*"
        {
        //relTol 0;
        relTol 0;
        tolerance 1e-8;
        }
}
relaxationFactors
{

    fields
    {
        p                   0.2;
        pFinal                1;
        "alpha.*"       1;
    }
    equations
    {
        "(T|B|nuTilda)"           0.6;
        U                   0.8;
        k                   0.6;
        epsilon             0.6;
        UFinal                1;
        kFinal                1;
        epsilonFinal          1;
        
    }
}

// ************************************************************************* //
